test/data/enwl/networks/network_16/Feeder_3/Loads.dss
New Load.LOAD1 Phases=1 Bus1=194.3 kV=0.23 kW=1 PF=0.95
New Load.LOAD2 Phases=1 Bus1=202.2 kV=0.23 kW=1 PF=0.95
New Load.LOAD3 Phases=1 Bus1=238.1 kV=0.23 kW=1 PF=0.95
New Load.LOAD4 Phases=1 Bus1=289.1 kV=0.23 kW=1 PF=0.95
New Load.LOAD5 Phases=1 Bus1=302.3 kV=0.23 kW=1 PF=0.95
New Load.LOAD6 Phases=1 Bus1=317.2 kV=0.23 kW=1 PF=0.95
New Load.LOAD7 Phases=1 Bus1=357.2 kV=0.23 kW=1 PF=0.95
New Load.LOAD8 Phases=1 Bus1=358.1 kV=0.23 kW=1 PF=0.95
New Load.LOAD9 Phases=1 Bus1=363.3 kV=0.23 kW=1 PF=0.95
New Load.LOAD10 Phases=1 Bus1=396.1 kV=0.23 kW=1 PF=0.95
New Load.LOAD11 Phases=1 Bus1=408.2 kV=0.23 kW=1 PF=0.95
New Load.LOAD12 Phases=1 Bus1=420.3 kV=0.23 kW=1 PF=0.95
New Load.LOAD13 Phases=1 Bus1=431.1 kV=0.23 kW=1 PF=0.95
New Load.LOAD14 Phases=1 Bus1=446.2 kV=0.23 kW=1 PF=0.95
New Load.LOAD15 Phases=1 Bus1=478.2 kV=0.23 kW=1 PF=0.95
New Load.LOAD16 Phases=1 Bus1=493.2 kV=0.23 kW=1 PF=0.95
New Load.LOAD17 Phases=1 Bus1=495.1 kV=0.23 kW=1 PF=0.95
New Load.LOAD18 Phases=1 Bus1=498.3 kV=0.23 kW=1 PF=0.95
New Load.LOAD19 Phases=1 Bus1=504.3 kV=0.23 kW=1 PF=0.95
New Load.LOAD20 Phases=1 Bus1=510.2 kV=0.23 kW=1 PF=0.95
New Load.LOAD21 Phases=1 Bus1=513.2 kV=0.23 kW=1 PF=0.95
New Load.LOAD22 Phases=1 Bus1=540.3 kV=0.23 kW=1 PF=0.95
New Load.LOAD23 Phases=1 Bus1=617.3 kV=0.23 kW=1 PF=0.95
New Load.LOAD24 Phases=1 Bus1=626.3 kV=0.23 kW=1 PF=0.95
New Load.LOAD25 Phases=1 Bus1=630.2 kV=0.23 kW=1 PF=0.95
New Load.LOAD26 Phases=1 Bus1=672.1 kV=0.23 kW=1 PF=0.95
New Load.LOAD27 Phases=1 Bus1=682.3 kV=0.23 kW=1 PF=0.95
New Load.LOAD28 Phases=1 Bus1=694.1 kV=0.23 kW=1 PF=0.95
New Load.LOAD29 Phases=1 Bus1=698.2 kV=0.23 kW=1 PF=0.95
New Load.LOAD30 Phases=1 Bus1=738.2 kV=0.23 kW=1 PF=0.95
New Load.LOAD31 Phases=1 Bus1=759.2 kV=0.23 kW=1 PF=0.95
New Load.LOAD32 Phases=1 Bus1=787.3 kV=0.23 kW=1 PF=0.95
New Load.LOAD33 Phases=1 Bus1=807.3 kV=0.23 kW=1 PF=0.95
New Load.LOAD34 Phases=1 Bus1=853.1 kV=0.23 kW=1 PF=0.95
New Load.LOAD35 Phases=1 Bus1=858.2 kV=0.23 kW=1 PF=0.95
New Load.LOAD36 Phases=1 Bus1=898.2 kV=0.23 kW=1 PF=0.95
New Load.LOAD37 Phases=1 Bus1=901.3 kV=0.23 kW=1 PF=0.95
New Load.LOAD38 Phases=1 Bus1=921.1 kV=0.23 kW=1 PF=0.95
New Load.LOAD39 Phases=1 Bus1=931.3 kV=0.23 kW=1 PF=0.95
New Load.LOAD40 Phases=1 Bus1=970.3 kV=0.23 kW=1 PF=0.95
New Load.LOAD41 Phases=1 Bus1=987.2 kV=0.23 kW=1 PF=0.95
New Load.LOAD42 Phases=1 Bus1=1035.2 kV=0.23 kW=1 PF=0.95
New Load.LOAD43 Phases=1 Bus1=1071.1 kV=0.23 kW=1 PF=0.95
New Load.LOAD44 Phases=1 Bus1=1079.1 kV=0.23 kW=1 PF=0.95
New Load.LOAD45 Phases=1 Bus1=1081.3 kV=0.23 kW=1 PF=0.95
New Load.LOAD46 Phases=1 Bus1=1089.3 kV=0.23 kW=1 PF=0.95
New Load.LOAD47 Phases=1 Bus1=1090.2 kV=0.23 kW=1 PF=0.95
New Load.LOAD48 Phases=1 Bus1=1101.1 kV=0.23 kW=1 PF=0.95
New Load.LOAD49 Phases=1 Bus1=1129.1 kV=0.23 kW=1 PF=0.95
New Load.LOAD50 Phases=1 Bus1=1137.1 kV=0.23 kW=1 PF=0.95
New Load.LOAD51 Phases=1 Bus1=1139.1 kV=0.23 kW=1 PF=0.95
New Load.LOAD52 Phases=1 Bus1=1155.2 kV=0.23 kW=1 PF=0.95
New Load.LOAD53 Phases=1 Bus1=1193.2 kV=0.23 kW=1 PF=0.95
New Load.LOAD54 Phases=1 Bus1=1199.2 kV=0.23 kW=1 PF=0.95
New Load.LOAD55 Phases=1 Bus1=1205.3 kV=0.23 kW=1 PF=0.95
New Load.LOAD56 Phases=1 Bus1=1210.3 kV=0.23 kW=1 PF=0.95
New Load.LOAD57 Phases=1 Bus1=1217.1 kV=0.23 kW=1 PF=0.95
New Load.LOAD58 Phases=1 Bus1=1234.3 kV=0.23 kW=1 PF=0.95
New Load.LOAD59 Phases=1 Bus1=1238.3 kV=0.23 kW=1 PF=0.95
New Load.LOAD60 Phases=1 Bus1=1248.1 kV=0.23 kW=1 PF=0.95
New Load.LOAD61 Phases=1 Bus1=1264.2 kV=0.23 kW=1 PF=0.95
New Load.LOAD62 Phases=1 Bus1=1276.2 kV=0.23 kW=1 PF=0.95
New Load.LOAD63 Phases=1 Bus1=1327.1 kV=0.23 kW=1 PF=0.95
New Load.LOAD64 Phases=1 Bus1=1330.1 kV=0.23 kW=1 PF=0.95
New Load.LOAD65 Phases=1 Bus1=1339.3 kV=0.23 kW=1 PF=0.95
New Load.LOAD66 Phases=1 Bus1=1345.2 kV=0.23 kW=1 PF=0.95
New Load.LOAD67 Phases=1 Bus1=1347.2 kV=0.23 kW=1 PF=0.95
New Load.LOAD68 Phases=1 Bus1=1351.3 kV=0.23 kW=1 PF=0.95